/*--------------------------------*- C++ -*----------------------------------*\
| =========                 |                                                 |
| \\      /  F ield         | OpenFOAM: The Open Source CFD Toolbox           |
|  \\    /   O peration     | Version:  2.2.x                                 |
|   \\  /    A nd           | Web:      www.OpenFOAM.org                      |
|    \\/     M anipulation  |                                                 |
\*---------------------------------------------------------------------------*/
FoamFile
{
    version     2.0;
    format      ascii;
    class       polyBoundaryMesh;
    location    "constant/polyMesh";
    object      boundary;
}
// * * * * * * * * * * * * * * * * * * * * * * * * * * * * * * * * * * * * * //

5
(
    sides
    {
        type            patch;
        nFaces          3200;
        startFace       1058728;
    }
    outlet
    {
        type            patch;
        nFaces          400;
        startFace       1061928;
    }
    region0_to_panelRegion_panel_bottom
    {
        type            mappedWall;
        nFaces          18432;
        startFace       1062328;
        sampleMode      nearestPatchFace;
        sampleRegion    panelRegion;
        samplePatch     region0_to_panelRegion_panel_bottom;
        offsetMode      nonuniform;
        offsets         nonuniform List<vector> 
18432
(
(2.77555756156e-17 -6.93889390391e-18 0)
(2.77555756156e-17 -8.67361737988e-19 5.55111512313e-17)
(2.77555756156e-17 0 0)
(5.55111512313e-17 -8.67361737988e-19 5.55111512313e-17)
(-2.77555756156e-17 -2.77555756156e-17 0)
(0 -2.77555756156e-17 5.55111512313e-17)
(0 2.77555756156e-17 -5.55111512313e-17)
(0 -1.38777878078e-17 0)
(0 -2.77555756156e-17 0)
(0 0 -5.55111512313e-17)
(2.77555756156e-17 -8.32667268469e-17 5.55111512313e-17)
(5.55111512313e-17 0 5.55111512313e-17)
(-2.77555756156e-17 0 0)
(2.77555756156e-17 5.55111512313e-17 5.55111512313e-17)
(0 0 0)
(2.77555756156e-17 -1.11022302463e-16 5.55111512313e-17)
(0 0 5.55111512313e-17)
(0 -5.55111512313e-17 0)
(2.77555756156e-17 -5.55111512313e-17 5.55111512313e-17)
(2.77555756156e-17 0 0)
(0 1.11022302463e-16 0)
(0 0 0)
(2.77555756156e-17 0 5.55111512313e-17)
(2.77555756156e-17 0 0)
(2.77555756156e-17 -2.22044604925e-16 5.55111512313e-17)
(0 -1.11022302463e-16 5.55111512313e-17)
(2.77555756156e-17 0 0)
(2.77555756156e-17 -1.11022302463e-16 5.55111512313e-17)
(-2.77555756156e-17 0 0)
(-2.77555756156e-17 1.11022302463e-16 0)
(0 0 0)
(2.77555756156e-17 -1.11022302463e-16 5.55111512313e-17)
(-2.77555756156e-17 0 0)
(0 1.11022302463e-16 0)
(0 0 0)
(2.77555756156e-17 0 0)
(-2.77555756156e-17 -1.11022302463e-16 0)
(0 0 0)
(0 -1.11022302463e-16 0)
(2.77555756156e-17 1.11022302463e-16 0)
(2.77555756156e-17 0 5.55111512313e-17)
(2.77555756156e-17 0 0)
(2.77555756156e-17 0 0)
(2.77555756156e-17 -2.22044604925e-16 0)
(2.77555756156e-17 0 5.55111512313e-17)
(2.77555756156e-17 0 0)
(2.77555756156e-17 0 0)
(2.77555756156e-17 -2.22044604925e-16 0)
(2.77555756156e-17 0 5.55111512313e-17)
(0 -2.22044604925e-16 0)
(2.77555756156e-17 0 0)
(5.55111512313e-17 -2.22044604925e-16 0)
(2.77555756156e-17 2.22044604925e-16 0)
(0 0 0)
(0 0 0)
(5.55111512313e-17 -4.4408920985e-16 0)
(2.77555756156e-17 -2.22044604925e-16 5.55111512313e-17)
(0 0 0)
(2.77555756156e-17 -2.22044604925e-16 0)
(-2.77555756156e-17 0 0)
(2.77555756156e-17 -2.22044604925e-16 5.55111512313e-17)
(2.77555756156e-17 -2.22044604925e-16 0)
(2.77555756156e-17 0 0)
(2.77555756156e-17 0 0)
(2.77555756156e-17 0 5.55111512313e-17)
(2.77555756156e-17 -2.22044604925e-16 0)
(2.77555756156e-17 0 0)
(2.77555756156e-17 -2.22044604925e-16 0)
(2.77555756156e-17 0 5.55111512313e-17)
(0 -4.4408920985e-16 0)
(2.77555756156e-17 0 0)
(5.55111512313e-17 2.22044604925e-16 0)
(2.77555756156e-17 0 0)
(0 0 0)
(0 0 0)
(5.55111512313e-17 -2.22044604925e-16 0)
(2.77555756156e-17 -2.22044604925e-16 5.55111512313e-17)
(0 0 0)
(2.77555756156e-17 -2.22044604925e-16 0)
(-2.77555756156e-17 2.22044604925e-16 0)
(-2.77555756156e-17 0 0)
(0 0 0)
(-2.77555756156e-17 0 1.11022302463e-16)
(-2.77555756156e-17 0 0)
(-2.77555756156e-17 0 0)
(0 0 -1.11022302463e-16)
(0 0 1.11022302463e-16)
(2.77555756156e-17 0 0)
(2.77555756156e-17 4.4408920985e-16 0)
(2.77555756156e-17 0 -1.11022302463e-16)
(0 -4.4408920985e-16 0)
(2.77555756156e-17 0 0)
(2.77555756156e-17 0 0)
(0 0 0)
(0 4.4408920985e-16 0)
(-2.77555756156e-17 0 0)
(0 0 0)
(2.77555756156e-17 -8.67361737988e-19 5.55111512313e-17)
(0 6.93889390391e-18 0)
(2.77555756156e-17 -8.67361737988e-19 5.55111512313e-17)
(0 0 -5.55111512313e-17)
(0 -1.38777878078e-17 5.55111512313e-17)
(-2.77555756156e-17 2.77555756156e-17 2.77555756156e-17)
(0 -1.38777878078e-17 0)
(0 -2.77555756156e-17 2.77555756156e-17)
(0 2.77555756156e-17 2.77555756156e-17)
(2.77555756156e-17 -5.55111512313e-17 0)
(0 0 5.55111512313e-17)
(0 5.55111512313e-17 2.77555756156e-17)
(0 -5.55111512313e-17 2.77555756156e-17)
(0 -5.55111512313e-17 0)
(2.77555756156e-17 -5.55111512313e-17 0)
(0 5.55111512313e-17 2.77555756156e-17)
(0 0 2.77555756156e-17)
(5.55111512313e-17 -1.66533453694e-16 2.77555756156e-17)
(0 0 -2.77555756156e-17)
(5.55111512313e-17 -1.11022302463e-16 8.32667268469e-17)
(0 1.11022302463e-16 2.77555756156e-17)
(-2.77555756156e-17 1.11022302463e-16 -8.32667268469e-17)
(0 -1.11022302463e-16 -2.77555756156e-17)
(2.77555756156e-17 -2.22044604925e-16 2.77555756156e-17)
(2.77555756156e-17 -1.11022302463e-16 5.55111512313e-17)
(2.77555756156e-17 0 0)
(2.77555756156e-17 -1.11022302463e-16 2.77555756156e-17)
(0 0 2.77555756156e-17)
(5.55111512313e-17 -3.33066907388e-16 8.32667268469e-17)
(0 0 -5.55111512313e-17)
(-2.77555756156e-17 2.22044604925e-16 -5.55111512313e-17)
(0 0 2.77555756156e-17)
(0 0 2.77555756156e-17)
(0 0 0)
(0 0 -2.77555756156e-17)
(0 0 2.77555756156e-17)
(0 -1.11022302463e-16 2.77555756156e-17)
(0 -1.11022302463e-16 0)
(0 1.11022302463e-16 -2.77555756156e-17)
(0 0 2.77555756156e-17)
(0 0 -2.77555756156e-17)
(0 0 0)
(0 0 -2.77555756156e-17)
(0 0 2.77555756156e-17)
(0 -2.22044604925e-16 -2.77555756156e-17)
(0 0 2.77555756156e-17)
(0 2.22044604925e-16 -2.77555756156e-17)
(0 0 2.77555756156e-17)
(0 0 2.77555756156e-17)
(0 0 -2.77555756156e-17)
(0 0 -2.77555756156e-17)
(0 0 0)
(0 0 2.77555756156e-17)
(0 0 -2.77555756156e-17)
(0 0 -2.77555756156e-17)
(0 0 2.77555756156e-17)
(0 0 0)
(0 0 0)
(0 0 0)
(0 -2.22044604925e-16 2.77555756156e-17)
(0 0 -2.77555756156e-17)
(0 0 0)
(0 0 -2.77555756156e-17)
(0 0 2.77555756156e-17)
(0 0 -2.77555756156e-17)
(0 0 2.77555756156e-17)
(0 2.22044604925e-16 -2.77555756156e-17)
(0 0 2.77555756156e-17)
(0 -2.22044604925e-16 0)
(0 2.22044604925e-16 -2.77555756156e-17)
(0 0 -2.77555756156e-17)
(0 0 0)
(0 0 2.77555756156e-17)
(0 0 -2.77555756156e-17)
(0 0 -2.77555756156e-17)
(0 2.22044604925e-16 2.77555756156e-17)
(0 0 0)
(0 -2.22044604925e-16 0)
(0 0 0)
(-2.77555756156e-17 0 2.77555756156e-17)
(0 0 0)
(0 0 -2.77555756156e-17)
(0 0 0)
(0 4.4408920985e-16 -2.77555756156e-17)
(0 4.4408920985e-16 0)
(0 0 0)
(0 -4.4408920985e-16 2.77555756156e-17)
(0 0 0)
(-2.77555756156e-17 0 2.77555756156e-17)
(0 0 -2.77555756156e-17)
(0 4.4408920985e-16 -2.77555756156e-17)
(0 -4.4408920985e-16 0)
(0 0 0)
(0 4.4408920985e-16 -2.77555756156e-17)
(0 0 0)
(2.77555756156e-17 0 2.08166817117e-17)
(2.77555756156e-17 -8.67361737988e-19 2.77555756156e-17)
(0 6.93889390391e-18 -1.38777878078e-17)
(0 0 0)
(0 0 6.93889390391e-18)
(0 -1.38777878078e-17 1.38777878078e-17)
(0 0 0)
(0 0 0)
(2.77555756156e-17 -5.55111512313e-17 6.93889390391e-18)
(0 2.77555756156e-17 0)
(0 2.77555756156e-17 0)
(0 2.77555756156e-17 -6.93889390391e-18)
(0 0 0)
(0 -5.55111512313e-17 0)
(0 -5.55111512313e-17 0)
(0 5.55111512313e-17 0)
(2.77555756156e-17 0 6.93889390391e-18)
(0 0 0)
(2.77555756156e-17 -1.11022302463e-16 1.38777878078e-17)
(-2.77555756156e-17 5.55111512313e-17 -6.93889390391e-18)
(0 -1.11022302463e-16 1.38777878078e-17)
(0 1.11022302463e-16 0)
(-2.77555756156e-17 1.11022302463e-16 -2.77555756156e-17)
(-2.77555756156e-17 0 -6.93889390391e-18)
(0 0 1.38777878078e-17)
(2.77555756156e-17 -1.11022302463e-16 2.77555756156e-17)
(2.77555756156e-17 -2.22044604925e-16 0)
(-2.77555756156e-17 0 -1.38777878078e-17)
(0 0 0)
(5.55111512313e-17 -3.33066907388e-16 4.16333634234e-17)
(0 0 1.38777878078e-17)
(-2.77555756156e-17 0 -1.38777878078e-17)
(0 0 0)
(0 0 0)
(0 0 0)
(-2.77555756156e-17 0 -6.93889390391e-18)
(-2.77555756156e-17 0 0)
(0 -1.11022302463e-16 0)
(0 -1.11022302463e-16 0)
(-2.77555756156e-17 1.11022302463e-16 -6.93889390391e-18)
(0 -2.22044604925e-16 6.93889390391e-18)
(0 0 0)
(0 0 1.38777878078e-17)
(2.77555756156e-17 -4.4408920985e-16 6.93889390391e-18)
(2.77555756156e-17 -2.22044604925e-16 0)
(0 -2.22044604925e-16 0)
(0 0 0)
(2.77555756156e-17 -2.22044604925e-16 6.93889390391e-18)
(2.77555756156e-17 0 0)
(0 0 -1.38777878078e-17)
(0 0 0)
(2.77555756156e-17 -6.66133814775e-16 0)
(2.77555756156e-17 -2.22044604925e-16 1.38777878078e-17)
(0 0 -1.38777878078e-17)
(0 0 0)
(2.77555756156e-17 -2.22044604925e-16 0)
(0 2.22044604925e-16 6.93889390391e-18)
(0 0 0)
(0 0 1.38777878078e-17)
(2.77555756156e-17 -2.22044604925e-16 2.08166817117e-17)
(2.77555756156e-17 0 6.93889390391e-18)
(0 0 0)
(0 2.22044604925e-16 1.38777878078e-17)
(2.77555756156e-17 -2.22044604925e-16 6.93889390391e-18)
(2.77555756156e-17 -2.22044604925e-16 0)
(0 0 0)
(0 0 0)
(2.77555756156e-17 -2.22044604925e-16 6.93889390391e-18)
(2.77555756156e-17 0 0)
(0 -2.22044604925e-16 0)
(0 0 0)
(2.77555756156e-17 -4.4408920985e-16 0)
(2.77555756156e-17 -4.4408920985e-16 1.38777878078e-17)
(0 0 -1.38777878078e-17)
(0 0 0)
(2.77555756156e-17 -6.66133814775e-16 0)
(0 0 6.93889390391e-18)
(0 0 0)
(0 -2.22044604925e-16 1.38777878078e-17)
(2.77555756156e-17 -8.881784197e-16 2.08166817117e-17)
(2.77555756156e-17 -4.4408920985e-16 3.46944695195e-17)
(0 0 0)
(0 0 0)
(2.77555756156e-17 0 2.08166817117e-17)
(5.55111512313e-17 -4.4408920985e-16 1.38777878078e-17)
(0 4.4408920985e-16 -1.38777878078e-17)
(0 -4.4408920985e-16 1.38777878078e-17)
(0 0 0)
(2.77555756156e-17 -4.4408920985e-16 1.38777878078e-17)
(-2.77555756156e-17 0 0)
(0 0 0)
(0 4.4408920985e-16 -1.38777878078e-17)
(2.77555756156e-17 -4.4408920985e-16 1.38777878078e-17)
(0 0 0)
(0 4.4408920985e-16 0)
(2.77555756156e-17 -4.4408920985e-16 2.08166817117e-17)
(2.77555756156e-17 -6.93889390391e-18 -6.93889390391e-18)
(2.77555756156e-17 -8.67361737988e-19 -2.60208521397e-18)
(0 6.93889390391e-18 8.67361737988e-19)
(0 -1.73472347598e-18 -6.93889390391e-18)
(2.77555756156e-17 -2.77555756156e-17 0)
(0 0 0)
(2.77555756156e-17 0 0)
(-2.77555756156e-17 0 0)
(0 0 6.93889390391e-18)
(-2.77555756156e-17 0 0)
(0 -5.55111512313e-17 8.67361737988e-19)
(0 0 0)
(0 0 6.93889390391e-18)
(-2.77555756156e-17 0 0)
(-2.77555756156e-17 -5.55111512313e-17 -8.67361737988e-19)
(0 0 6.93889390391e-18)
(2.77555756156e-17 -5.55111512313e-17 0)
(0 0 0)
(0 5.55111512313e-17 0)
(0 0 0)
(0 0 0)
(2.77555756156e-17 -1.11022302463e-16 0)
(0 1.11022302463e-16 -8.67361737988e-19)
(0 0 0)
(5.55111512313e-17 0 0)
(2.77555756156e-17 -1.11022302463e-16 -3.46944695195e-18)
(0 0 0)
(0 -1.11022302463e-16 -6.93889390391e-18)
(0 0 6.93889390391e-18)
(2.77555756156e-17 -1.11022302463e-16 0)
(0 -2.22044604925e-16 -1.73472347598e-18)
(0 -1.11022302463e-16 -6.93889390391e-18)
(0 0 6.93889390391e-18)
(-2.77555756156e-17 1.11022302463e-16 8.67361737988e-19)
(-2.77555756156e-17 1.11022302463e-16 -8.67361737988e-19)
(0 1.11022302463e-16 0)
(0 0 6.93889390391e-18)
(0 -1.11022302463e-16 0)
(0 1.11022302463e-16 8.67361737988e-19)
(0 1.11022302463e-16 0)
(-2.77555756156e-17 4.4408920985e-16 1.38777878078e-17)
(2.77555756156e-17 -2.22044604925e-16 -8.67361737988e-19)
(2.77555756156e-17 0 -8.67361737988e-19)
(0 2.22044604925e-16 6.93889390391e-18)
(5.55111512313e-17 -2.22044604925e-16 -6.93889390391e-18)
(2.77555756156e-17 -2.22044604925e-16 -8.67361737988e-19)
(2.77555756156e-17 -2.22044604925e-16 0)
(2.77555756156e-17 0 -1.38777878078e-17)
(5.55111512313e-17 -2.22044604925e-16 -6.93889390391e-18)
(0 0 0)
(0 -2.22044604925e-16 0)
(0 -2.22044604925e-16 -6.93889390391e-18)
(-2.77555756156e-17 4.4408920985e-16 1.38777878078e-17)
(0 0 0)
(0 0 0)
(0 0 -6.93889390391e-18)
(-2.77555756156e-17 4.4408920985e-16 1.38777878078e-17)
(0 0 0)
(2.77555756156e-17 -2.22044604925e-16 -8.67361737988e-19)
(2.77555756156e-17 -2.22044604925e-16 -6.93889390391e-18)
(0 -4.4408920985e-16 6.93889390391e-18)
(2.77555756156e-17 -4.4408920985e-16 -1.73472347598e-18)
(2.77555756156e-17 -2.22044604925e-16 -8.67361737988e-19)
(0 2.22044604925e-16 6.93889390391e-18)
(5.55111512313e-17 -4.4408920985e-16 -6.93889390391e-18)
(0 -4.4408920985e-16 -1.73472347598e-18)
(-2.77555756156e-17 2.22044604925e-16 0)
(2.77555756156e-17 0 -1.38777878078e-17)
(5.55111512313e-17 -2.22044604925e-16 -6.93889390391e-18)
(2.77555756156e-17 -2.22044604925e-16 -1.73472347598e-18)
(2.77555756156e-17 -2.22044604925e-16 -8.67361737988e-19)
(0 0 -6.93889390391e-18)
(-2.77555756156e-17 2.22044604925e-16 1.38777878078e-17)
(0 0 -8.67361737988e-19)
(2.77555756156e-17 -6.66133814775e-16 -2.60208521397e-18)
(0 -2.22044604925e-16 -6.93889390391e-18)
(-2.77555756156e-17 4.4408920985e-16 1.38777878078e-17)
(0 0 0)
(2.77555756156e-17 -4.4408920985e-16 -8.67361737988e-19)
(2.77555756156e-17 -4.4408920985e-16 -6.93889390391e-18)
(0 4.4408920985e-16 6.93889390391e-18)
(0 0 0)
(2.77555756156e-17 -4.4408920985e-16 -1.73472347598e-18)
(2.77555756156e-17 -4.4408920985e-16 -6.93889390391e-18)
(0 0 0)
(2.77555756156e-17 -4.4408920985e-16 -1.73472347598e-18)
(2.77555756156e-17 -8.881784197e-16 -1.73472347598e-18)
(2.77555756156e-17 0 1.38777878078e-17)
(-2.77555756156e-17 4.4408920985e-16 1.38777878078e-17)
(2.77555756156e-17 -4.4408920985e-16 -1.73472347598e-18)
(0 0 0)
(0 4.4408920985e-16 6.93889390391e-18)
(-2.77555756156e-17 4.4408920985e-16 1.38777878078e-17)
(0 0 0)
(0 0 0)
(2.77555756156e-17 -4.4408920985e-16 -6.93889390391e-18)
(-2.77555756156e-17 0 2.77555756156e-17)
(0 0 0)
(2.77555756156e-17 6.93889390391e-18 -1.38777878078e-17)
(-2.77555756156e-17 0 0)
(0 0 0)
(0 0 0)
(-2.77555756156e-17 0 -1.38777878078e-17)
(0 0 0)
(0 2.77555756156e-17 0)
(-2.77555756156e-17 0 -2.77555756156e-17)
(0 2.77555756156e-17 1.38777878078e-17)
(0 0 0)
(5.55111512313e-17 -5.55111512313e-17 -8.32667268469e-17)
(0 -1.11022302463e-16 -1.38777878078e-17)
(2.77555756156e-17 0 -1.38777878078e-17)
(2.77555756156e-17 -5.55111512313e-17 -2.77555756156e-17)
(0 0 2.77555756156e-17)
(2.77555756156e-17 0 -1.38777878078e-17)
(0 0 -2.77555756156e-17)
(5.55111512313e-17 -5.55111512313e-17 -2.77555756156e-17)
(0 0 -2.77555756156e-17)
(2.77555756156e-17 0 -1.38777878078e-17)
(2.77555756156e-17 -1.11022302463e-16 -2.77555756156e-17)
(5.55111512313e-17 -2.22044604925e-16 -2.77555756156e-17)
(0 1.11022302463e-16 -2.77555756156e-17)
(-2.77555756156e-17 2.22044604925e-16 2.77555756156e-17)
(0 0 0)
(0 0 2.77555756156e-17)
(5.55111512313e-17 -2.22044604925e-16 -8.32667268469e-17)
(0 0 0)
(5.55111512313e-17 0 -2.77555756156e-17)
(0 -1.11022302463e-16 2.77555756156e-17)
(5.55111512313e-17 -2.22044604925e-16 -8.32667268469e-17)
(2.77555756156e-17 -2.22044604925e-16 -2.77555756156e-17)
(2.77555756156e-17 -1.11022302463e-16 -1.38777878078e-17)
(5.55111512313e-17 -2.22044604925e-16 -2.77555756156e-17)
(0 -1.11022302463e-16 -2.77555756156e-17)
(2.77555756156e-17 -1.11022302463e-16 -1.38777878078e-17)
(2.77555756156e-17 -1.11022302463e-16 -1.38777878078e-17)
(5.55111512313e-17 -2.22044604925e-16 -2.77555756156e-17)
(0 0 -2.77555756156e-17)
(2.77555756156e-17 0 -2.77555756156e-17)
(0 -2.22044604925e-16 -4.16333634234e-17)
(8.32667268469e-17 -2.22044604925e-16 -5.55111512313e-17)
(2.77555756156e-17 -2.22044604925e-16 -5.55111512313e-17)
(2.77555756156e-17 -2.22044604925e-16 -2.77555756156e-17)
(2.77555756156e-17 -2.22044604925e-16 -2.77555756156e-17)
(5.55111512313e-17 -2.22044604925e-16 -2.77555756156e-17)
(2.77555756156e-17 -2.22044604925e-16 -5.55111512313e-17)
(0 -4.4408920985e-16 -1.38777878078e-17)
(2.77555756156e-17 -2.22044604925e-16 -1.38777878078e-17)
(5.55111512313e-17 0 -2.77555756156e-17)
(2.77555756156e-17 -2.22044604925e-16 0)
(0 -2.22044604925e-16 -1.38777878078e-17)
(2.77555756156e-17 -2.22044604925e-16 -4.16333634234e-17)
(5.55111512313e-17 -2.22044604925e-16 -2.77555756156e-17)
(0 0 -2.77555756156e-17)
(2.77555756156e-17 -2.22044604925e-16 -1.38777878078e-17)
(0 -2.22044604925e-16 -4.16333634234e-17)
(-2.77555756156e-17 2.22044604925e-16 0)
(5.55111512313e-17 -4.4408920985e-16 -8.32667268469e-17)
(2.77555756156e-17 2.22044604925e-16 -2.77555756156e-17)
(0 -2.22044604925e-16 -4.16333634234e-17)
(8.32667268469e-17 -6.66133814775e-16 -5.55111512313e-17)
(2.77555756156e-17 -2.22044604925e-16 -5.55111512313e-17)
(2.77555756156e-17 0 -2.77555756156e-17)
(2.77555756156e-17 0 -2.77555756156e-17)
(5.55111512313e-17 -4.4408920985e-16 -2.77555756156e-17)
(2.77555756156e-17 -4.4408920985e-16 -5.55111512313e-17)
(2.77555756156e-17 -2.22044604925e-16 -2.77555756156e-17)
(2.77555756156e-17 -4.4408920985e-16 -1.38777878078e-17)
(5.55111512313e-17 -6.66133814775e-16 -2.77555756156e-17)
(2.77555756156e-17 -2.22044604925e-16 0)
(0 -2.22044604925e-16 -1.38777878078e-17)
(2.77555756156e-17 0 -4.16333634234e-17)
(5.55111512313e-17 -2.22044604925e-16 -2.77555756156e-17)
(0 0 -2.77555756156e-17)
(2.77555756156e-17 -4.4408920985e-16 -1.38777878078e-17)
(0 -2.22044604925e-16 -4.16333634234e-17)
(-2.77555756156e-17 2.22044604925e-16 0)
(0 0 0)
(2.77555756156e-17 0 -1.38777878078e-17)
(2.77555756156e-17 0 -2.77555756156e-17)
(-2.77555756156e-17 4.4408920985e-16 0)
(-2.77555756156e-17 0 0)
(2.77555756156e-17 -4.4408920985e-16 -2.77555756156e-17)
(2.77555756156e-17 -4.4408920985e-16 -2.77555756156e-17)
(2.77555756156e-17 4.4408920985e-16 0)
(2.77555756156e-17 -4.4408920985e-16 0)
(0 4.4408920985e-16 0)
(2.77555756156e-17 -4.4408920985e-16 -4.16333634234e-17)
(2.77555756156e-17 -4.4408920985e-16 0)
(2.77555756156e-17 -8.881784197e-16 0)
(2.77555756156e-17 -8.881784197e-16 -1.38777878078e-17)
(2.77555756156e-17 -4.4408920985e-16 -4.16333634234e-17)
(-2.77555756156e-17 -4.4408920985e-16 0)
(0 0 0)
(0 0 0)
(-2.77555756156e-17 6.93889390391e-18 2.77555756156e-17)
(2.77555756156e-17 -8.67361737988e-19 -5.55111512313e-17)
(0 -2.77555756156e-17 -8.32667268469e-17)
(0 0 5.55111512313e-17)
(0 0 2.77555756156e-17)
(0 -1.38777878078e-17 0)
(0 -2.77555756156e-17 2.77555756156e-17)
(0 0 0)
(-2.77555756156e-17 0 2.77555756156e-17)
(0 0 2.77555756156e-17)
(0 0 -2.77555756156e-17)
(-2.77555756156e-17 0 5.55111512313e-17)
(8.32667268469e-17 -1.66533453694e-16 -8.32667268469e-17)
(2.77555756156e-17 -5.55111512313e-17 0)
(2.77555756156e-17 -5.55111512313e-17 -8.32667268469e-17)
(0 0 5.55111512313e-17)
(0 0 0)
(0 0 2.77555756156e-17)
(0 1.11022302463e-16 -5.55111512313e-17)
(0 1.11022302463e-16 5.55111512313e-17)
(0 0 0)
(0 -1.11022302463e-16 2.77555756156e-17)
(2.77555756156e-17 -2.22044604925e-16 -1.11022302463e-16)
(0 0 0)
(0 -1.11022302463e-16 0)
(2.77555756156e-17 -1.11022302463e-16 0)
(0 0 -2.77555756156e-17)
(0 0 0)
(0 1.11022302463e-16 0)
(-2.77555756156e-17 2.22044604925e-16 8.32667268469e-17)
(0 0 -2.77555756156e-17)
(-5.55111512313e-17 2.22044604925e-16 8.32667268469e-17)
(8.32667268469e-17 -3.33066907388e-16 -8.32667268469e-17)
(0 0 2.77555756156e-17)
(0 0 -2.77555756156e-17)
(0 0 5.55111512313e-17)
(8.32667268469e-17 -4.4408920985e-16 -8.32667268469e-17)
(0 1.11022302463e-16 2.77555756156e-17)
(0 0 -2.77555756156e-17)
(5.55111512313e-17 -2.22044604925e-16 2.77555756156e-17)
(-2.77555756156e-17 0 0)
(0 0 0)
(0 0 -2.77555756156e-17)
(5.55111512313e-17 -2.22044604925e-16 2.77555756156e-17)
(0 0 -2.77555756156e-17)
(0 2.22044604925e-16 0)
(0 0 -2.77555756156e-17)
(0 0 5.55111512313e-17)
(0 0 -2.77555756156e-17)
(0 0 2.77555756156e-17)
(0 0 0)
(0 0 5.55111512313e-17)
(0 0 0)
(0 0 2.77555756156e-17)
(0 0 -2.77555756156e-17)
(0 -2.22044604925e-16 2.77555756156e-17)
(-2.77555756156e-17 0 0)
(0 0 0)
(0 -2.22044604925e-16 -2.77555756156e-17)
(5.55111512313e-17 -4.4408920985e-16 2.77555756156e-17)
(-2.77555756156e-17 -2.22044604925e-16 0)
(0 0 0)
(0 0 -2.77555756156e-17)
(5.55111512313e-17 -4.4408920985e-16 2.77555756156e-17)
(0 0 -2.77555756156e-17)
(0 2.22044604925e-16 0)
(0 2.22044604925e-16 -2.77555756156e-17)
(5.55111512313e-17 -4.4408920985e-16 2.77555756156e-17)
(0 -2.22044604925e-16 -2.77555756156e-17)
(0 0 2.77555756156e-17)
(0 0 0)
(0 -2.22044604925e-16 5.55111512313e-17)
(0 -2.22044604925e-16 0)
(0 0 2.77555756156e-17)
(0 0 -2.77555756156e-17)
(0 0 2.77555756156e-17)
(-2.77555756156e-17 0 0)
(0 0 0)
(-2.77555756156e-17 0 0)
(0 0 2.77555756156e-17)
(-2.77555756156e-17 0 -2.77555756156e-17)
(0 0 0)
(0 0 0)
(0 -4.4408920985e-16 2.77555756156e-17)
(0 0 0)
(0 -4.4408920985e-16 -5.55111512313e-17)
(0 4.4408920985e-16 0)
(0 4.4408920985e-16 5.55111512313e-17)
(0 0 0)
(0 4.4408920985e-16 0)
(0 -4.4408920985e-16 0)
(0 4.4408920985e-16 2.77555756156e-17)
(0 0 0)
(0 0 0)
(0 0 0)
(0 0 5.55111512313e-17)
(0 0 -5.55111512313e-17)
(0 0 0)
(0 6.93889390391e-18 0)
(0 0 0)
(0 0 0)
(0 0 5.55111512313e-17)
(2.77555756156e-17 -6.93889390391e-18 2.77555756156e-17)
(0 0 0)
(0 0 2.77555756156e-17)
(0 -6.93889390391e-18 0)
(0 -2.77555756156e-17 0)
(0 -2.77555756156e-17 5.55111512313e-17)
(2.77555756156e-17 0 5.55111512313e-17)
(2.77555756156e-17 -2.77555756156e-17 5.55111512313e-17)
(0 0 -2.77555756156e-17)
(-2.77555756156e-17 -2.77555756156e-17 0)
(0 1.38777878078e-17 -2.77555756156e-17)
(0 0 0)
(0 2.77555756156e-17 -2.77555756156e-17)
(-2.77555756156e-17 0 -2.77555756156e-17)
(0 0 2.77555756156e-17)
(0 5.55111512313e-17 -2.77555756156e-17)
(2.77555756156e-17 -5.55111512313e-17 5.55111512313e-17)
(2.77555756156e-17 -5.55111512313e-17 5.55111512313e-17)
(2.77555756156e-17 -5.55111512313e-17 5.55111512313e-17)
(0 0 5.55111512313e-17)
(0 2.77555756156e-17 2.77555756156e-17)
(0 0 0)
(-2.77555756156e-17 2.77555756156e-17 0)
(0 2.77555756156e-17 0)
(2.77555756156e-17 -5.55111512313e-17 5.55111512313e-17)
(-2.77555756156e-17 5.55111512313e-17 -5.55111512313e-17)
(2.77555756156e-17 -5.55111512313e-17 0)
(-5.55111512313e-17 5.55111512313e-17 -2.77555756156e-17)
(2.77555756156e-17 5.55111512313e-17 5.55111512313e-17)
(0 -5.55111512313e-17 5.55111512313e-17)
(2.77555756156e-17 0 5.55111512313e-17)
(2.77555756156e-17 -5.55111512313e-17 5.55111512313e-17)
(0 -5.55111512313e-17 -2.77555756156e-17)
(0 -1.11022302463e-16 0)
(2.77555756156e-17 -1.66533453694e-16 8.32667268469e-17)
(0 0 -5.55111512313e-17)
(2.77555756156e-17 -5.55111512313e-17 5.55111512313e-17)
(5.55111512313e-17 -1.11022302463e-16 0)
(0 0 0)
(-2.77555756156e-17 0 0)
(2.77555756156e-17 -1.11022302463e-16 5.55111512313e-17)
(0 0 0)
(2.77555756156e-17 -1.11022302463e-16 5.55111512313e-17)
(2.77555756156e-17 -5.55111512313e-17 5.55111512313e-17)
(2.77555756156e-17 -1.11022302463e-16 0)
(8.32667268469e-17 -1.66533453694e-16 8.32667268469e-17)
(0 -5.55111512313e-17 2.77555756156e-17)
(-2.77555756156e-17 1.11022302463e-16 -5.55111512313e-17)
(2.77555756156e-17 -1.11022302463e-16 5.55111512313e-17)
(5.55111512313e-17 -2.22044604925e-16 0)
(0 -1.11022302463e-16 2.77555756156e-17)
(0 0 0)
(2.77555756156e-17 0 0)
(0 0 0)
(0 0 0)
(-2.77555756156e-17 0 0)
(-2.77555756156e-17 1.11022302463e-16 -8.32667268469e-17)
(8.32667268469e-17 -3.33066907388e-16 8.32667268469e-17)
(0 0 2.77555756156e-17)
(0 1.11022302463e-16 0)
(0 -1.11022302463e-16 2.77555756156e-17)
(0 0 -5.55111512313e-17)
(0 0 -2.77555756156e-17)
(8.32667268469e-17 -3.33066907388e-16 8.32667268469e-17)
(2.77555756156e-17 -1.11022302463e-16 0)
(0 0 0)
(0 0 0)
(-2.77555756156e-17 -1.11022302463e-16 0)
(2.77555756156e-17 -2.22044604925e-16 0)
(0 0 0)
(2.77555756156e-17 -1.11022302463e-16 1.11022302463e-16)
(0 1.11022302463e-16 0)
(0 1.11022302463e-16 2.77555756156e-17)
(-5.55111512313e-17 1.11022302463e-16 -8.32667268469e-17)
(0 0 -2.77555756156e-17)
(8.32667268469e-17 -3.33066907388e-16 8.32667268469e-17)
(2.77555756156e-17 -1.11022302463e-16 0)
(2.77555756156e-17 1.11022302463e-16 5.55111512313e-17)
(0 0 0)
(0 0 0)
(0 0 -2.77555756156e-17)
(0 -1.11022302463e-16 0)
(0 -1.11022302463e-16 5.55111512313e-17)
(0 0 -5.55111512313e-17)
(0 -1.11022302463e-16 2.77555756156e-17)
(0 0 0)
(-2.77555756156e-17 2.22044604925e-16 -8.32667268469e-17)
(0 0 0)
(2.77555756156e-17 -2.22044604925e-16 5.55111512313e-17)
(2.77555756156e-17 0 0)
(-2.77555756156e-17 1.11022302463e-16 -5.55111512313e-17)
(0 -1.11022302463e-16 0)
(0 0 -2.77555756156e-17)
(8.32667268469e-17 -3.33066907388e-16 8.32667268469e-17)
(0 0 2.77555756156e-17)
(0 0 -5.55111512313e-17)
(0 1.11022302463e-16 5.55111512313e-17)
(0 -2.22044604925e-16 0)
(2.77555756156e-17 -1.11022302463e-16 0)
(0 0 0)
(2.77555756156e-17 -2.22044604925e-16 5.55111512313e-17)
(0 0 0)
(-2.77555756156e-17 -1.11022302463e-16 0)
(-2.77555756156e-17 0 0)
(0 -1.11022302463e-16 -2.77555756156e-17)
(8.32667268469e-17 -4.4408920985e-16 8.32667268469e-17)
(0 -1.11022302463e-16 2.77555756156e-17)
(-5.55111512313e-17 1.11022302463e-16 -8.32667268469e-17)
(0 0 5.55111512313e-17)
(0 1.11022302463e-16 -5.55111512313e-17)
(0 0 -2.77555756156e-17)
(0 -1.11022302463e-16 0)
(5.55111512313e-17 0 0)
(0 -2.22044604925e-16 0)
(0 -2.22044604925e-16 0)
(2.77555756156e-17 0 0)
(0 0 -2.77555756156e-17)
(0 0 2.77555756156e-17)
(0 0 2.77555756156e-17)
(0 0 -5.55111512313e-17)
(0 0 2.77555756156e-17)
(0 0 -2.77555756156e-17)
(0 0 0)
(-2.77555756156e-17 0 0)
(-2.77555756156e-17 0 0)
(2.77555756156e-17 -2.22044604925e-16 0)
(0 0 0)
(2.77555756156e-17 -2.22044604925e-16 5.55111512313e-17)
(0 0 0)
(0 0 2.77555756156e-17)
(0 -2.22044604925e-16 2.77555756156e-17)
(5.55111512313e-17 -2.22044604925e-16 -2.77555756156e-17)
(0 0 0)
(0 0 -5.55111512313e-17)
(0 0 -2.77555756156e-17)
(0 2.22044604925e-16 0)
(2.77555756156e-17 0 0)
(2.77555756156e-17 0 0)
(2.77555756156e-17 0 0)
(2.77555756156e-17 0 5.55111512313e-17)
(0 0 0)
(-2.77555756156e-17 0 0)
(0 0 2.77555756156e-17)
(5.55111512313e-17 -2.22044604925e-16 -2.77555756156e-17)
(0 0 2.77555756156e-17)
(0 0 -5.55111512313e-17)
(0 0 -2.77555756156e-17)
(0 0 2.77555756156e-17)
(2.77555756156e-17 -2.22044604925e-16 0)
(2.77555756156e-17 -2.22044604925e-16 0)
(2.77555756156e-17 -2.22044604925e-16 0)
(2.77555756156e-17 -2.22044604925e-16 5.55111512313e-17)
(0 0 0)
(-2.77555756156e-17 -2.22044604925e-16 0)
(0 0 2.77555756156e-17)
(0 0 -2.77555756156e-17)
(0 0 2.77555756156e-17)
(5.55111512313e-17 -2.22044604925e-16 -2.77555756156e-17)
(0 0 0)
(0 0 2.77555756156e-17)
(5.55111512313e-17 -2.22044604925e-16 0)
(2.77555756156e-17 0 0)
(0 -2.22044604925e-16 0)
(2.77555756156e-17 -2.22044604925e-16 5.55111512313e-17)
(0 0 -2.77555756156e-17)
(0 2.22044604925e-16 0)
(0 2.22044604925e-16 0)
(0 0 -5.55111512313e-17)
(0 0 2.77555756156e-17)
(5.55111512313e-17 -4.4408920985e-16 -2.77555756156e-17)
(0 0 0)
(-2.77555756156e-17 0 0)
(5.55111512313e-17 0 0)
(0 0 0)
(0 -2.22044604925e-16 0)
(2.77555756156e-17 2.22044604925e-16 0)
(0 2.22044604925e-16 -2.77555756156e-17)
(0 0 2.77555756156e-17)
(0 0 2.77555756156e-17)
(5.55111512313e-17 -2.22044604925e-16 -2.77555756156e-17)
(0 -2.22044604925e-16 2.77555756156e-17)
(0 2.22044604925e-16 -2.77555756156e-17)
(0 -2.22044604925e-16 0)
(-2.77555756156e-17 0 0)
(-2.77555756156e-17 4.4408920985e-16 0)
(2.77555756156e-17 -2.22044604925e-16 0)
(0 -4.4408920985e-16 0)
(2.77555756156e-17 0 5.55111512313e-17)
(0 0 0)
(0 0 2.77555756156e-17)
(0 -2.22044604925e-16 2.77555756156e-17)
(5.55111512313e-17 -2.22044604925e-16 -2.77555756156e-17)
(0 -4.4408920985e-16 0)
(0 0 -5.55111512313e-17)
(0 0 -2.77555756156e-17)
(0 2.22044604925e-16 0)
(2.77555756156e-17 0 0)
(2.77555756156e-17 -4.4408920985e-16 0)
(2.77555756156e-17 -2.22044604925e-16 0)
(2.77555756156e-17 -4.4408920985e-16 5.55111512313e-17)
(0 0 0)
(-2.77555756156e-17 0 0)
(0 -2.22044604925e-16 2.77555756156e-17)
(5.55111512313e-17 -2.22044604925e-16 -2.77555756156e-17)
(0 0 2.77555756156e-17)
(5.55111512313e-17 -4.4408920985e-16 -2.77555756156e-17)
(0 0 -2.77555756156e-17)
(0 -2.22044604925e-16 2.77555756156e-17)
(2.77555756156e-17 -2.22044604925e-16 0)
(2.77555756156e-17 -2.22044604925e-16 0)
(2.77555756156e-17 -2.22044604925e-16 0)
(2.77555756156e-17 0 5.55111512313e-17)
(0 0 0)
(-2.77555756156e-17 0 0)
(0 -2.22044604925e-16 2.77555756156e-17)
(0 2.22044604925e-16 -2.77555756156e-17)
(0 0 2.77555756156e-17)
(5.55111512313e-17 -4.4408920985e-16 -2.77555756156e-17)
(0 0 0)
(0 0 2.77555756156e-17)
(5.55111512313e-17 0 0)
(2.77555756156e-17 0 0)
(0 -4.4408920985e-16 0)
(2.77555756156e-17 -2.22044604925e-16 5.55111512313e-17)
(0 -2.22044604925e-16 -2.77555756156e-17)
(0 0 0)
(0 0 0)
(0 0 -5.55111512313e-17)
(0 4.4408920985e-16 2.77555756156e-17)
(5.55111512313e-17 -4.4408920985e-16 -2.77555756156e-17)
(0 0 0)
(-2.77555756156e-17 2.22044604925e-16 0)
(-2.77555756156e-17 0 0)
(0 4.4408920985e-16 0)
(0 0 0)
(2.77555756156e-17 -4.4408920985e-16 0)
(0 0 0)
(0 0 0)
(0 0 0)
(0 0 -5.55111512313e-17)
(0 0 0)
(0 0 -2.77555756156e-17)
(0 4.4408920985e-16 0)
(0 0 0)
(-2.77555756156e-17 0 0)
(0 0 0)
(0 0 0)
(2.77555756156e-17 -4.4408920985e-16 0)
(0 -4.4408920985e-16 5.55111512313e-17)
(0 4.4408920985e-16 0)
(0 0 0)
(0 0 -2.77555756156e-17)
(0 0 0)
(0 4.4408920985e-16 -2.77555756156e-17)
(0 0 0)
(0 -4.4408920985e-16 0)
(-2.77555756156e-17 0 0)
(-2.77555756156e-17 0 1.11022302463e-16)
(0 0 0)
(-2.77555756156e-17 0 0)
(0 0 0)
(-2.77555756156e-17 -4.4408920985e-16 2.77555756156e-17)
(-2.77555756156e-17 4.4408920985e-16 0)
(0 0 -2.77555756156e-17)
(0 0 0)
(0 0 -5.55111512313e-17)
(0 -4.4408920985e-16 0)
(0 0 0)
(2.77555756156e-17 0 0)
(0 -4.4408920985e-16 1.11022302463e-16)
(0 0 -1.11022302463e-16)
(-2.77555756156e-17 0 0)
(0 4.4408920985e-16 0)
(0 0 0)
(0 0 0)
(0 -4.4408920985e-16 -2.77555756156e-17)
(0 0 0)
(0 0 -2.77555756156e-17)
(0 -4.4408920985e-16 5.55111512313e-17)
(0 0 0)
(2.77555756156e-17 -6.93889390391e-18 2.77555756156e-17)
(0 0 -2.77555756156e-17)
(2.77555756156e-17 -1.38777878078e-17 2.77555756156e-17)
(0 0 2.77555756156e-17)
(2.77555756156e-17 0 2.77555756156e-17)
(0 0 0)
(-2.77555756156e-17 0 0)
(2.77555756156e-17 0 0)