/*--------------------------------*- C++ -*----------------------------------*\
| =========                 |                                                 |
| \\      /  F ield         | OpenFOAM: The Open Source CFD Toolbox           |
|  \\    /   O peration     | Version:  v1806                                 |
|   \\  /    A nd           | Web:      www.OpenFOAM.com                      |
|    \\/     M anipulation  |                                                 |
\*---------------------------------------------------------------------------*/
FoamFile
{
    version     2.0;
    format      ascii;
    class       dictionary;
    location    "system";
    object      controlDict;
}
// * * * * * * * * * * * * * * * * * * * * * * * * * * * * * * * * * * * * * //

application     scalarTransportFoam;

startFrom       startTime;

startTime       0;

stopAt          endTime;

endTime         3;

deltaT          0.001;

writeControl    adjustableRunTime;

writeInterval   0.05;

purgeWrite      0;

writeFormat     ascii;

writePrecision  6;

writeCompression on;

timeFormat      general;

timePrecision   6;

runTimeModifiable true;

functions
{
    sample1
    {
        type        sets;
        libs        ("libsampling.so");
        outputControl runTime;
        writeInterval 100;
        setFormat   raw;
        sets
        (
            line1
            {
                type        uniform;
                axis        distance;

                start       (0.333 0 0.05);
                end         (0.333 1 0.05);
                nPoints     200;
            }
        );
        interpolationScheme cellPoint;
        fields          (T);
    }
}

// ************************************************************************* //
