/*---------------------------------------------------------------------------*\
| =========                 |                                                 |
| \\      /  F ield         | OpenFOAM: The Open Source CFD Toolbox           |
|  \\    /   O peration     | Version:  2.2.0                                 |
|   \\  /    A nd           | Web:      www.OpenFOAM.org                      |
|    \\/     M anipulation  |                                                 |
\*---------------------------------------------------------------------------*/
FoamFile
{
    version         2.0;
    format          ascii;
    class           dictionary;
    object          controlDict;
}
// * * * * * * * * * * * * * * * * * * * * * * * * * * * * * * * * * * * * * //

application     nonReactingFoamAMR;

startFrom       startTime;

startTime       0.0;

stopAt          endTime;

endTime         10.0;

deltaT          0.003;

writeControl    adjustableRunTime;

writeInterval   0.05;

purgeWrite      0;

writeFormat     ascii;

writePrecision  12;

writeCompression on;

timeFormat      general;

timePrecision   6;

graphFormat     raw;

runTimeModifiable yes;

adjustTimeStep  yes;

maxCo           0.9;

maxDeltaT       0.01;
/*
functions
{
    partialWrite
    {
        type            writeRegisteredObject;

        // Where to load it from
        functionObjectLibs ("libIOFunctionObjects.so");

        // Execute upon options:
        //  timeStep
        //  outputTime
        //  adjustableTime
        //  runTime
        //  clockTime
        //  cpuTime
        outputControl   adjustableTime;

        // Objects (fields or lagrangian fields in any of the clouds)
        // to write every outputTime
        objectNames    (rho U He);

        exclusiveWriting     false;

        // Interval of time (sec) to write down(
        writeInterval   0.05; //(adjustableTime, runTime, clockTime, cpuTime)
    }
}
*/
// ************************************************************************* //
