/*--------------------------------*- C++ -*----------------------------------*\
| =========                 |                                                 |
| \\      /  F ield         | OpenFOAM: The Open Source CFD Toolbox           |
|  \\    /   O peration     | Version:  2.2.0                                 |
|   \\  /    A nd           | Web:      www.OpenFOAM.org                      |
|    \\/     M anipulation  |                                                 |
\*---------------------------------------------------------------------------*/
FoamFile
{
    version         2.0;
    format          ascii;
    class           volScalarField;
    object          O2;
}
// * * * * * * * * * * * * * * * * * * * * * * * * * * * * * * * * * * * * * //

dimensions      [0 0 0 0 0 0 0];

internalField   uniform 0.233;

boundaryField
{
    inlet
    {
        type                totalFlowRateAdvectiveDiffusive;
        massFluxFraction    0.0;
        phi                 phi;
        rho                 rho;
        value               uniform 0.0;
    }

    plate
    {
        type            zeroGradient;
    }

    coflow
    {
        type            inletOutlet;
        inletValue      $internalField;
        value           $internalField;
    }

    sides
    {
        type            inletOutlet;
        inletValue      $internalField;
        value           $internalField;
    }

    outlet
    {
        type            inletOutlet;
        inletValue      $internalField;
        value           $internalField;
    }
}

// ************************************************************************* //
