/*--------------------------------*- C++ -*----------------------------------*\
| =========                 |                                                 |
| \\      /  F ield         | OpenFOAM: The Open Source CFD Toolbox           |
|  \\    /   O peration     | Version:  2.2.x                                 |
|   \\  /    A nd           | Web:      www.OpenFOAM.org                      |
|    \\/     M anipulation  |                                                 |
\*---------------------------------------------------------------------------*/
FoamFile
{
    version     2.0;
    format      ascii;
    class       volVectorField;
    location    "0";
    object      U;
}
// * * * * * * * * * * * * * * * * * * * * * * * * * * * * * * * * * * * * * //

dimensions      [ 0 1 -1 0 0 0 0 ];

internalField   uniform ( 0 0 0 );

boundaryField
{
    inlet
    {
        type            flowRateInletVelocity;
        massFlowRate    constant 0.0475; // kg/s
        value           uniform (0 0 0);
    }

    plate
    {
        type            fixedValue;
        value           uniform ( 0 0 0 );
    }

    coflow
    {
        type            zeroGradient;
    }

    sides
    {
        type            pressureInletOutletVelocity;
        phi             phi;
        value           uniform ( 0 0 0 );
    }

    outlet
    {
        type            inletOutlet;
        inletValue      uniform ( 0 0 0 );
        value           uniform ( 0 0 0 );
    }
}
